Circuit: * C:\users\cyber\Desktop\Documents\CyberIndustries\Progetti\roombarmato\test\simulazione_lm380\amplificatore.asc

r5: both pins shorted together -- ignoring.
Direct Newton iteration for .op point succeeded.

Date: Sat Dec 30 15:16:03 2023
Total elapsed time: 0.082 seconds.

tnom = 27
temp = 27
method = trap
totiter = 12
traniter = 0
tranpoints = 0
accept = 0
rejected = 0
matrix size = 24
fillins = 18
solver = Normal
Avg thread counts: 8.0/0.0/8.0/8.0
Matrix Compiler1:     135 opcodes
Matrix Compiler2: 2.25 KB object code size
